Circuit: * Z:\home\ciga\uni\lab\catena_elettronica\simulations\preamp\bode_preamp.asc

Direct Newton iteration for .op point succeeded.

Date: Wed Mar 03 01:03:08 2021
Total elapsed time: 0.032 seconds.

tnom = 27
temp = 27
method = trap
totiter = 3
traniter = 0
tranpoints = 0
accept = 0
rejected = 0
matrix size = 10
fillins = 1
solver = Normal
Matrix Compiler1:      24 opcodes
Matrix Compiler2: 808 bytes object code size
