Circuit: * Z:\home\ciga\uni\lab\catena_elettronica\simulations\shaper\shaper_pole0.asc

Direct Newton iteration for .op point succeeded.

Date: Thu Mar 04 20:54:39 2021
Total elapsed time: 0.033 seconds.

tnom = 27
temp = 27
method = modified trap
totiter = 2127
traniter = 2124
tranpoints = 1063
accept = 1059
rejected = 4
matrix size = 14
fillins = 1
solver = Normal
Matrix Compiler1: 690 bytes object code size  0.6/0.4/[0.4]
Matrix Compiler2: 1.26 KB object code size  0.5/0.5/[0.5]

