Circuit: * Z:\home\ciga\uni\lab\catena_elettronica\simulations\shaper\shaper_bode.asc

Direct Newton iteration for .op point succeeded.

Date: Tue Mar 09 18:12:10 2021
Total elapsed time: 0.031 seconds.

tnom = 27
temp = 27
method = trap
totiter = 3
traniter = 0
tranpoints = 0
accept = 0
rejected = 0
matrix size = 11
fillins = 0
solver = Normal
Matrix Compiler1:      24 opcodes
Matrix Compiler2: 847 bytes object code size
