Circuit: * Z:\home\ciga\uni\lab\catena_elettronica\simulations\catena_tot\shaper_bode.asc

Direct Newton iteration for .op point succeeded.

Date: Wed Mar 10 14:05:43 2021
Total elapsed time: 0.034 seconds.

tnom = 27
temp = 27
method = trap
totiter = 3
traniter = 0
tranpoints = 0
accept = 0
rejected = 0
matrix size = 16
fillins = 3
solver = Normal
Matrix Compiler1:      57 opcodes
Matrix Compiler2: 1.68 KB object code size
